20
 energy: -25.254625763158 gnorm: 0.000556959995 xtb: 6.4.1 (afa7bdf)
C         3.49939672873950    1.78143604373757    0.28874776140396
C         2.56749030277389    0.93093676312145   -0.00197424200413
C         1.64492358128007    0.06609773359455   -0.28541450448680
C         1.36819259891511   -1.16982030400281    0.52325770165795
C        -0.08213278632253   -1.18266673115877    1.02992030410171
C        -1.05809346228787   -1.27991545523546   -0.10507390310753
C        -1.89751723594574   -0.32710096121222   -0.42569329403700
C        -2.42766800990670    1.00889732772389   -0.14358792730295
C        -2.96428683241025    0.17646021522362   -1.29276590521830
H         4.49748354947018    1.69181905304466   -0.11135130615484
H         3.31911645401152    2.62402877006870    0.93805177872867
H         0.99838547371489    0.21730299716476   -1.14066884576401
H         2.05445587533408   -1.21628136852060    1.37073895296028
H         1.53504463352369   -2.05169648226273   -0.10291917241563
H        -0.27373230175594   -0.27394863278611    1.60326673185281
H        -0.21301725482136   -2.04411073982127    1.69113846534242
H        -1.02371473736074   -2.19558519833188   -0.68380635426242
H        -1.81581680010302    1.87041628132618   -0.37424552511683
H        -3.95399623991940   -0.24942345724293   -1.20012025767959
H        -2.71910230019662    0.47417023548133   -2.30312024114776
