20
Generated by autodE on: 2023-09-11. E = -365.760805 Ha
C    -1.85946  -0.71904  -0.78054
C    -1.48225   0.63420  -0.27776
C    -2.50820   1.71671  -0.26175
C    -0.31272   0.74729   0.65804
N     0.85961   0.02333   0.21421
C     1.48655   0.44287  -1.01922
C     1.35675  -1.03827   0.90797
O     2.31917  -1.69539   0.59451
H    -2.46828  -0.65119  -1.69433
H    -0.97393  -1.33528  -0.99575
H    -2.46453  -1.27358  -0.03515
H    -3.07836   1.74083  -1.20279
H    -2.05415   2.70679  -0.10648
H    -3.24858   1.57011   0.55011
H    -0.57732   0.35745   1.66229
H    -0.05728   1.81317   0.80091
H     2.35863  -0.19724  -1.19271
H     0.78643   0.35137  -1.86508
H     1.80951   1.49387  -0.94976
H     0.76274  -1.24433   1.82927
