21
Generated by autodE on: 2023-09-11. E = -366.422286 Ha
C    -2.46022  -0.87465   1.54064
C    -1.40964  -0.76648   0.43855
C    -1.93337   0.00910  -0.76584
C    -0.14086  -0.11534   1.00284
N     0.91939   0.05511   0.03580
C     1.52992  -1.12328  -0.53782
C     1.30690   1.28887  -0.39361
O     2.15141   1.50758  -1.22772
H    -2.07946  -1.43390   2.40807
H    -2.75991   0.12668   1.88904
H    -3.36262  -1.38625   1.17777
H    -1.15082  -1.78900   0.11227
H    -2.84680  -0.45338  -1.16620
H    -1.19012   0.05151  -1.57509
H    -2.17867   1.04515  -0.47961
H    -0.39818   0.88039   1.40103
H     0.23216  -0.71494   1.85269
H     2.42204  -0.81022  -1.09178
H     1.81483  -1.82734   0.25901
H     0.84709  -1.63924  -1.23293
H     0.75070   2.10303   0.12707
