14
Generated by autodE on: 2023-09-11. E = -341.221990 Ha
C    -1.40109  -1.65844  -0.05369
C    -0.92014  -0.30745   0.34142
C    -0.94937   0.75144  -0.74487
N     0.05907   1.52367  -0.72887
O     0.91237   1.13983   0.27956
C     0.56599  -0.19190   0.72772
N     1.37001  -1.20522   0.13104
H    -0.73738  -2.51849   0.01047
H    -2.44326  -1.79685  -0.34041
H    -1.53586   0.08801   1.17427
H    -1.74595   0.90655  -1.47363
H     0.72875  -0.19089   1.81245
H     2.35215  -1.05063   0.34650
H     1.26857  -1.19777  -0.88376
