35
Generated by autodE on: 2023-09-11. E = -707.626954 Ha. Imaginary frequency = -1629.7 cm-1
C    -2.00294   1.45497   1.58520
C    -0.97106   1.58469   0.48563
C    -1.38025   2.51902  -0.63131
C     0.41648   1.85850   1.04722
N     1.44423   2.02467   0.04586
C     1.81171   0.87941  -0.75442
C     1.98441   3.23989  -0.24206
O     2.78843   3.45475  -1.11699
H    -1.66651   0.76647   2.37579
H    -2.18882   2.43321   2.06241
H    -2.96532   1.09323   1.19338
H    -0.97308   0.39566  -0.07988
H    -2.36999   2.24928  -1.02910
H    -0.65810   2.50273  -1.46118
H    -1.44194   3.56004  -0.26616
H     0.37734   2.78843   1.64525
H     0.69572   1.03665   1.72656
H     2.79380   1.06578  -1.20450
H     1.84221  -0.01357  -0.11301
H     1.08497   0.70400  -1.56769
H     1.60659   4.03776   0.43958
C    -1.39431  -0.77155  -0.76113
C    -0.33782  -1.85213  -0.84844
C    -0.95177  -3.12703  -1.38236
N    -1.12963  -4.02412  -0.49690
O    -0.62656  -3.59325   0.70329
C     0.16487  -2.39900   0.50051
N     0.06695  -1.50167   1.59770
H    -2.28036  -1.05792  -0.17621
H    -1.67797  -0.34687  -1.73240
H     0.50277  -1.51513  -1.46824
H    -1.32257  -3.28770  -2.39561
H     1.21391  -2.72682   0.40295
H     0.42176  -1.93729   2.44645
H    -0.90793  -1.25380   1.76367
