20
 energy: -34.219955122846 gnorm: 0.000760967629 xtb: 6.4.1 (afa7bdf)
C         2.41439736516927   -0.94947418894515   -1.60678146441039
O         1.54786886547382   -0.72606805808556   -0.49875772417727
C         0.26066987762787   -0.51876887780564   -0.79733425315067
O        -0.17982598801777   -0.51458071935538   -1.91170417822481
C        -0.55915865135695   -0.27662325497733    0.47861089622261
C        -0.43052593944943   -1.45673764327310    1.43082767211918
C        -0.16932116825148    1.08620805722430    1.08519729760625
O        -0.96725852675420    2.00204420702779    0.37281885230926
C        -2.06310045210389    1.29141535455410   -0.16584349120661
O        -1.91841587524630   -0.06287415432000    0.15139797968723
H         3.40064216139776   -1.12805381177910   -1.18691924160829
H         2.42607292290434   -0.07482920308428   -2.25949891710733
H         2.07687049862745   -1.81377974170470   -2.18131053480812
H        -1.03366147994256   -1.27622281006834    2.31681010788947
H         0.60993188069861   -1.58828166186236    1.71286770193450
H        -0.79289657401288   -2.35733770232512    0.94225855323176
H        -0.41932981299696    1.10503996299975    2.15521717131096
H         0.88053518620245    1.34516776086398    0.94595215288546
H        -2.07491263124251    1.45045016815349   -1.25496939726509
H        -3.00859642227506    1.64380631645655    0.27096573771773
